Circuit: * D:\MyRepos\SHVFeedthroughFilter\SHVFeedthroughFilter.asc


Date: Thu Feb 10 08:11:39 2022
Total elapsed time: 0.042 seconds.

tnom = 27
temp = 27
method = trap
totiter = 0
traniter = 0
tranpoints = 0
accept = 0
rejected = 0
matrix size = 8
fillins = 0
solver = Normal

